50
Coordinates from ORCA-job BMImFEP
  H   -5.01675703929244     -0.36371857970712      0.53284427275427
  C   -4.12150460210614      0.00037270066815      0.03384455683531
  C   -2.91763815425447     -0.05364573267232      0.96495806452090
  H   -3.95558528395378     -0.61732997971696     -0.84603458388758
  H   -4.31469547911264      1.01957627013051     -0.29992944756673
  C   -1.63725709830331      0.41284200642748      0.27930106378026
  H   -2.77206818163811     -1.07559045693161      1.31513702707846
  H   -3.10610099116844      0.56063638771388      1.84855373563377
  C   -0.46950988716496      0.39034529538613      1.25271056953078
  H   -1.77388250661093      1.42140220788010     -0.11655382364942
  H   -1.41041156891348     -0.24409139723217     -0.55789403442624
  N   0.81731877590194      0.62892197790683      0.58227775798937
  H   -0.38971591194721     -0.58407068147222      1.72325570655730
  H   -0.58290082038769      1.14283264661113      2.03085706366805
  C   1.79580901200471     -0.26751604154826      0.48681561035279
  C   1.18151424033351      1.75485994548097     -0.12494882746524
  N   2.77806363398572      0.24681877038816     -0.25071457281415
  H   1.77529584662690     -1.26255906469323      0.88438226762447
  C   2.41315856183081      1.51430389556838     -0.64877798983993
  H   0.54425774922832      2.61356781324983     -0.19799461563396
  C   3.98064021655818     -0.47739802871845     -0.65276383385777
  H   3.04665293183271      2.12257842857319     -1.26388606426227
  H   4.85889336037194      0.02839492167303     -0.26447401901601
  H   3.91906463876904     -1.48494013753736     -0.25910113391765
  H   4.01763459627531     -0.52814614025606     -1.73542514575954
  P   0.48891431644713     -3.74927057907935     -0.57799974947869
  F   1.20155498901887     -5.13745160921224     -0.98222333781741
  C   1.05463518617256     -2.89165577990325     -2.25567458019258
  C   -1.18864139218867     -4.45830540890722     -1.31425606700150
  F   1.92818417123920     -3.17463616338964      0.01939558355695
  C   0.10907391232220     -4.42262075803563      1.22005713492382
  F   -0.23516241044857     -2.31832732138589     -0.16086303202452
  F   -1.57115945812623     -5.54875617210474     -0.59807384606904
  F   -0.95305758523782     -4.90543024641698     -2.57498920611337
  C   -2.47047589298312     -3.58256209057680     -1.39957001187726
  F   0.20993843868153     -5.77138112611991      1.29097629994189
  C   0.98455291199865     -3.92894862010530      2.40191942860207
  F   2.24440720942506     -4.34084862851632      2.31789773348573
  F   0.98590154807478     -2.57811828248992      2.49548437480337
  F   -3.42663205745377     -4.26476668850419     -2.04208746257948
  F   -2.27887206997555     -2.43860870592088     -2.06286144524320
  F   -2.93808099173062     -3.27621360721534     -0.18708043011047
  F   0.48207667242118     -4.39063240707914      3.55074761355724
  F   -1.15966415148860     -4.08298210739871      1.58749024082565
  C   2.17656682305118     -3.57461344348174     -3.07629933355455
  F   1.55802641550674     -1.64071535149969     -1.96023039930432
  F   0.05184831325728     -2.65711813756003     -3.13189049508891
  F   3.27218507349410     -3.77619964584657     -2.33713811735601
  F   2.53109887386085     -2.77069672532354     -4.09656596844786
  F   1.77967511579636     -4.72901742109896     -3.59363453166684
