31
Coordinates from ORCA-job Pyr14Cl
  C   -0.30741372654229      1.58265913807095      1.84268122140385
  H   -0.22640730935165      2.63567333984035      1.56647252709146
  H   -1.30043135075652      1.42894096171014      2.26956534631579
  C   0.75698118059732      1.23360276139936      2.87036881913524
  H   0.66307382454977      0.18977253172932      3.17658129895978
  H   1.75500643437285      1.35467140709621      2.44443951218433
  C   0.62650869322063      2.13066509048664      4.10496210906048
  H   0.72263815831484      3.17965888603331      3.80410526393326
  H   -0.37796822701079      2.02342277692706      4.52912731517689
  C   1.66931569534690      1.80690351364770      5.17284766384142
  H   2.68361977092031      1.93968525250935      4.78688077681017
  H   1.55615974624029      2.45634272491712      6.04321168788079
  H   1.57587282567949      0.77233385387212      5.51402278729444
  N   -0.29049060883579      0.81647558730311      0.54410533973356
  C   -0.42074440225928     -0.68831965096109      0.74989838570084
  C   0.99619373792624     -1.25412861088895      0.81061356392599
  C   1.91693903628049     -0.19356094231562      0.16229212538961
  C   1.02364453555967      0.98885692961022     -0.21204046315883
  H   -1.02656147322733     -0.85703177550652      1.63998159910201
  H   -0.91156107367995     -1.06357691547248     -0.14842944640700
  H   1.02024208323088     -2.18156976562749      0.24128325451303
  H   1.30807016236153     -1.47045583155919      1.83265371268349
  H   2.36257332307797     -0.58387662824041     -0.75079412767401
  H   2.71781146791166      0.09780524453655      0.84253096867416
  H   0.76521202878604      0.91325563883416     -1.26819980625196
  H   1.42754899093051      1.97031938192120      0.03468241115132
  H   -2.36189586264227      1.13558555886632      0.23958856324070
  C   -1.43158032269872      1.31430070225138     -0.29843552178506
  H   -1.29819996065616      2.38266639953515     -0.46495188372348
  H   -1.40489303946199      0.75798217288211     -1.24191449295212
  Cl  -0.28527733818465     -0.91410973340812     -2.51737951125022
