55
Coordinates from ORCA-job BMPyrFEP
  C   0.46834675125457      1.78745162946068      1.82099630702457
  H   1.34548515959753      2.38947020962490      2.05424378947082
  H   -0.39986635161152      2.43305517946568      1.80940536446865
  C   0.27625055093244      0.68538251123588      2.84236123679757
  H   -0.62410888920827      0.11922343533766      2.61402235155564
  H   1.11630240294449     -0.01144869400893      2.84595118098302
  C   0.12281732384008      1.29380187334019      4.23697670287300
  H   1.03387992723427      1.83560025939614      4.49923357157634
  H   -0.68602322977783      2.02107169371157      4.21711584679547
  C   -0.17354940704543      0.23300590050687      5.28860780334123
  H   0.62044745976872     -0.51242836596160      5.33676617429960
  H   -0.27191459683368      0.68100136388320      6.27463349337668
  H   -1.10738501637928     -0.27917718721865      5.06396629684295
  N   0.66656360753920      1.32971907092374      0.38838783698429
  C   -0.38688679006515      0.31168360812260     -0.05884021062729
  C   0.34219741492288     -1.01575491645921     -0.12075097160241
  C   1.73211484766443     -0.60549877010419     -0.60650523732313
  C   2.01230113702512      0.64051354656757      0.21720952044839
  H   -1.23495951363236      0.36622703077531      0.60797772869064
  H   -0.71259906153708      0.61887681379856     -1.04508652696454
  H   -0.16059360236429     -1.70506007435014     -0.79238948821636
  H   0.39932699317974     -1.47994020302640      0.86160699098657
  H   1.70836035994612     -0.37012807002771     -1.66971953732130
  H   2.49257588497567     -1.36446404977542     -0.44721618870940
  H   2.70371615305668      1.34440437102545     -0.23291088666362
  H   2.37159506083851      0.37862048400184      1.20575207558668
  H   -0.42677978845279      2.92292180632140     -0.45040437404704
  C   0.58521504002350      2.53799015375083     -0.48946545066611
  H   1.28518211241803      3.28162519196337     -0.12284150382484
  H   0.84185254034924      2.24588894840563     -1.50259692140308
  P   -3.65560070189931      2.66089405363446      1.22378708722057
  F   -2.53722595367245      1.60209575950674      1.82656819280169
  C   -4.26458428854446      1.37873201375766     -0.12433808044898
  C   -4.89774884463397      1.92794599349557      2.58680971406268
  F   -2.51117947040847      3.11999819651033      0.11108175790369
  C   -3.01326231743277      4.11180208636686      2.34533767232629
  F   -4.73864711881584      3.69694065985469      0.62615963591891
  C   -4.57827086648374      1.86043521445667      4.11527253695799
  C   -2.16509449390986      5.24374143884893      1.70840376014759
  F   -5.06221538358036      0.60213251537926      2.28775353574423
  F   -6.11036040520715      2.52190698886485      2.50369527274663
  F   -2.23511385477383      3.65587002828429      3.37735360025510
  F   -4.07427553458044      4.75522801325450      2.89163044554058
  F   -3.40981192720740      1.24884781733132      4.35059046685622
  F   -5.53528027168675      1.13399816613133      4.71080738001604
  F   -4.56044820904470      3.04568836149820      4.71470164792283
  F   -0.94892760257235      4.80080489571547      1.32913197441805
  F   -1.95216859177926      6.20050604856975      2.62107582223451
  F   -2.76005484825252      5.79963624549917      0.66194167374209
  F   -5.61364263875596      1.25328859986199     -0.07752068539368
  F   -3.72208456368481      0.13425242373484      0.04935448180607
  C   -3.97341525065210      1.69968815470730     -1.62203003171211
  F   -4.33854231803821      2.92418386868018     -1.97414802666211
  F   -4.64727502287329      0.83224529659212     -2.39046651342557
  F   -2.66940400211356      1.54005240877670     -1.92785029571226
