25
Coordinates from ORCA-job FAP
  P   0.48221810251169     -3.52119815940370     -0.55050693791302
  C   1.56778363921854     -4.69516001905469     -1.78484767222164
  F   0.27051640213308     -2.35012625241759     -1.72307319684095
  C   -1.33739076512394     -4.22380058233976     -1.17437106647194
  F   1.94524110525755     -2.85362011960906     -0.13841640472775
  F   0.60912541356593     -4.72669568985176      0.59430169394336
  C   -0.26469050900529     -2.33376951314565      0.90412028344923
  F   0.93075930429050     -5.87525223542130     -2.13151343283025
  F   2.71249988642069     -5.08667270071415     -1.10657332424546
  C   2.09170900230596     -4.09398191229699     -3.13751652690511
  F   -1.28479297427821     -4.51494469967491     -2.52939348974090
  F   -2.28626334849551     -3.21887117382099     -1.06016112952856
  C   -2.00505233825965     -5.48627895779697     -0.51615291980280
  F   -3.21888998120243     -5.73316147323747     -1.11857646384817
  F   -2.25218921875765     -5.31554271794637      0.80492131419651
  F   1.08739390965330     -3.81912236715953     -4.00576072264515
  F   2.91770028418636     -5.00118112401707     -3.76329891796856
  F   2.81955635894671     -2.96536427788344     -2.95046245902098
  F   -1.25929497042863     -6.60749791350242     -0.66515649457558
  C   -0.45256683021394     -0.80252126181949      0.61036168737837
  F   0.60296289768367     -2.38107528340161      1.98507965250866
  F   -1.48453203234972     -2.76297097290910      1.40069400001351
  F   0.69550189976751     -0.21574692083669      0.19016676281825
  F   -0.83588182137322     -0.14830179968199      1.75997239956846
  F   -1.41831341645329     -0.56693187205726     -0.31151663458956
