32
Coordinates from ORCA-job TEPA
  C   -0.07855942588247      1.72497307530459      2.22683243671687
  H   0.08044720163367      2.76483618032435      1.92693362827096
  H   -1.05057841409118      1.66915116420368      2.72857633399517
  C   1.03604665275368      1.28490812470814      3.18019770286053
  H   0.94314373563344      0.22051129109623      3.43373744379664
  H   2.01868378706705      1.42674208632989      2.71425353610635
  C   0.96608994565786      2.12281684026174      4.47419563087997
  H   1.08206643554891      3.19507266978236      4.26444339932001
  H   0.00947091218281      1.97789451368679      4.99501973113884
  H   1.76945577641963      1.82736215776614      5.15945672554048
  N   -0.24580435134958      0.93668610303545      0.91256899810998
  C   -0.47033569924487     -0.56560577457405      1.17659334568546
  H   0.45085580640897     -0.93667347342824      1.62872433436408
  C   2.16304880762360      0.17613241870692      0.13981524785238
  C   0.97743287173729      1.12771542990128     -0.02885974066089
  C   -1.66586423897241     -0.91959311510746      2.06042746735049
  H   -0.56828839847744     -1.02369894018049      0.18533367977858
  H   2.94502351829724      0.52547936332136     -0.54836350104111
  H   2.59060778448683      0.17694583706251      1.14628468963517
  H   0.57869521134030      1.02788514570888     -1.04423024238515
  H   1.28995621776299      2.16703430903296      0.10902349602222
  H   -2.33291216753923      1.35105915699583      0.87020642678799
  C   -1.49675237881495      1.48651541560753      0.17925339201587
  C   -1.42631958671268      2.94226959154102     -0.28075039868583
  H   -1.64421516564159      0.81471330013857     -0.67439800283534
  H   1.92181038696998     -0.85336189983147     -0.14590723578809
  H   -2.63015055483521     -0.64426850290534      1.62000961437200
  H   -1.59359947075224     -0.48705363694612      3.06505874188823
  H   -1.66686193745768     -2.01128147734395      2.17950989182147
  H   -2.37039363467445      3.16165160899409     -0.79722897871737
  H   -0.61646826575485      3.13265257187501     -0.99349105290700
  H   -1.34576666102432      3.64950092433477      0.55224806928713
