57
Coordinates from ORCA-job TEPAFEP
  N   0.23058407196511      0.51339178618933      0.55274806233303
  C   0.65877143252033      1.88991875892772      1.03567460877347
  H   1.37196281423335      2.25430710798269      0.30192631015219
  H   -0.22838044841455      2.50969927898750      0.96835803735163
  C   1.25790518806025      1.98166023729729      2.42575693866420
  H   0.52120391741887      1.70619718190088      3.17337156656676
  H   2.11452132900168      1.31573681905668      2.53265025497327
  C   1.69427197040097      3.42483348079569      2.67717252494786
  H   2.44919233646040      3.74139467185907      1.95841406738839
  H   0.84525345640962      4.09909025885299      2.60206662158579
  H   2.11751819321388      3.52346364954030      3.67334236872500
  C   -0.87016002740368     -0.05116282152707      1.45377199219584
  H   -1.45752438359293      0.80357319900217      1.75372789477894
  H   -1.49311652400374     -0.66489795148667      0.81556849200569
  C   -0.43646196945587     -0.86936835290047      2.65483939928965
  H   -1.34410083588490     -1.08653192451460      3.21453152744360
  H   0.23478884258732     -0.34136209766554      3.32220942283264
  H   0.01232674860014     -1.81980422066868      2.37920493858610
  C   1.39450301375844     -0.43697817677946      0.47884644408940
  H   1.75909918823708     -0.55912961870361      1.49086862889694
  H   0.98788392332583     -1.39204507612566      0.16114694794871
  C   2.52484905980056     -0.00144378071983     -0.43273091124703
  H   2.20611655979798      0.14458077437643     -1.46059262446804
  H   3.27385250417179     -0.79035465347521     -0.43074990346047
  H   3.00887597511633      0.90616930289818     -0.08449005530180
  C   -0.37715811492481      0.74600236003745     -0.82548307394110
  H   -1.26679267967656      1.34049990705127     -0.65063946256756
  H   0.33241396751714      1.36475497341488     -1.36545007262162
  C   -0.70125326484540     -0.50059838508311     -1.62281776900206
  H   -1.18949291520633     -0.17417364292076     -2.53829832809693
  H   -1.39608738234144     -1.16261768545093     -1.11435044240129
  H   0.18215681766578     -1.06676973978409     -1.90578951552328
  P   -3.58719357597271      3.52825876488622      1.26491758700714
  F   -2.46786774957243      2.42826696457187      0.68230227846355
  F   -3.89324412805312      3.98492533689514     -0.25845644239788
  C   -5.06999033798551      2.26967394060561      1.03157352413266
  C   -2.24185833084096      4.95687496265627      1.20790807838266
  C   -3.04450993452440      2.80637455852084      3.03350046541491
  F   -4.65370475891437      4.55436550123398      1.92663434455519
  C   -4.81787153694105      0.95721762757047      0.24843401409290
  C   -3.55304574185324      3.46672369621401      4.33248896246268
  F   -6.04317217964059      2.90652426876930      0.32907102582366
  F   -5.64730130545656      1.90541471459972      2.20587053123830
  F   -1.67481220100950      2.79572929108935      3.14186853932119
  F   -3.37969979490690      1.48625662120419      3.13067903590998
  F   -4.27232885356238      1.19085772516728     -0.94962327792395
  F   -5.97031452378253      0.30937635658462      0.04972731785578
  F   -4.00475018283148      0.11755658151739      0.91230869179030
  F   -3.21293413602545      4.75250938922735      4.38583210857652
  F   -2.99484406418967      2.85192206443465      5.39098032182306
  F   -4.87091583041342      3.35977724347883      4.45194911333841
  F   -1.40177192160127      4.71172169715981      0.15657420508231
  F   -1.43410357788698      5.06567592905971      2.30225114253236
  C   -2.76044333054314      6.41434292526404      1.01343329728748
  F   -3.63431747490368      6.54815153897706      0.02414458008702
  F   -1.70589844612977      7.20197132248299      0.73235102797313
  F   -3.31158884697143      6.87220535746447      2.13753463627265
