15
Coordinates from ORCA-job NTf2
  S   2.90559110453388     -0.15990825555972      2.80731688315755
  O   3.62322501944073     -0.75237701606556      1.68011806369569
  O   3.68288026914098      0.32148247246210      3.94873951585525
  N   1.63782881782444      0.74623942042849      2.38257984044861
  S   1.75808826898338      2.24119430205220      1.82922534888158
  O   3.09414346999695      2.66046374282590      1.41058114180623
  O   0.61004284457845      2.53227515467945      0.97682436137373
  C   1.87083879864048     -1.60340759486743      3.51031944843582
  F   1.04737408266387     -2.15545832761099      2.58201662954685
  F   2.72579964139646     -2.58040039369935      3.93595351572557
  F   1.11367579073090     -1.23205121263853      4.57583526068164
  C   1.40470542805654      3.31770903961308      3.37262467450690
  F   1.42005397510183      4.64135691961125      3.02700544227663
  F   2.32839479580977      3.13759753941806      4.34842587821838
  F   0.17786969310132      3.05150120935106      3.90302699538957
